J1test.dss
Clear

New Circuit.J1 bus1=S basekv=69 pu=0.97 R1=1.376 X1=14.257 R0=0.001 X0=8.203
New Transformer.SubXfmr Buses=[S LS_Bus] Conns=[wye wye] %Noloadloss=0 NumTaps=16 Phases=3 Ppm_Antifloat=5 Windings=2 XHL=11.63 %imag=0 kVAs=[16000  16000] kVs=[68.8        13.09] sub=y Wdg=1 %R=0.596 Wdg=2 %R=0.596
New Transformer.B13552_1A EmergHKVA=56 %Loadloss=0.7221 %Noloadloss=0 NormHKVA=40 Phases=1 XHL=1.5158 %imag=0 Wdg=1 Bus=B13552.1 kV=7.2 kVA=40 Wdg=2 Bus=X_B13552_A.1 kV=0.24 kVA=40
New Transformer.B50640_1A EmergHKVA=21 %Loadloss=1.04 %Noloadloss=0 NormHKVA=15 Phases=1 XHL=1.5 %imag=0 Wdg=1 Bus=B50640.1 kV=7.2 kVA=15 Wdg=2 Bus=X_B50640_A.1 kV=0.24 kVA=15
New Transformer.B4805_1C EmergHKVA=70 %Loadloss=0.738 %Noloadloss=0 NormHKVA=50 Phases=1 XHL=1.7532 %imag=0 Wdg=1 Bus=B4805.3 kV=7.2 kVA=50 Wdg=2 Bus=X_B4805_C.3 kV=0.24 kVA=50
New Transformer.B4710_1A EmergHKVA=21 %Loadloss=1.04 %Noloadloss=0 NormHKVA=15 Phases=1 XHL=1.5 %imag=0 Wdg=1 Bus=B4710.1 kV=7.2 kVA=15 Wdg=2 Bus=X_B4710_A.1 kV=0.24 kVA=15
New Transformer.B4859_1A EmergHKVA=35 %Loadloss=0.7639 %Noloadloss=0 NormHKVA=25 Phases=1 XHL=2.1 %imag=0 Wdg=1 Bus=B4859.1 kV=7.2 kVA=25 Wdg=2 Bus=X_B4859_A.1 kV=0.24 kVA=25
New Transformer.B4859_1B EmergHKVA=35 %Loadloss=0.7639 %Noloadloss=0 NormHKVA=25 Phases=1 XHL=2.1 %imag=0 Wdg=1 Bus=B4859.2 kV=7.2 kVA=25 Wdg=2 Bus=X_B4859_B.2 kV=0.24 kVA=25
New Transformer.B4859_1C EmergHKVA=35 %Loadloss=0.7639 %Noloadloss=0 NormHKVA=25 Phases=1 XHL=2.1 %imag=0 Wdg=1 Bus=B4859.3 kV=7.2 kVA=25 Wdg=2 Bus=X_B4859_C.3 kV=0.24 kVA=25
New Transformer.B41240_1A EmergHKVA=21 %Loadloss=1.04 %Noloadloss=0 NormHKVA=15 Phases=1 XHL=1.5 %imag=0 Wdg=1 Bus=B41240.1 kV=7.2 kVA=15 Wdg=2 Bus=X_B41240_A.1 kV=0.24 kVA=15
New Transformer.B18979_1C EmergHKVA=21 %Loadloss=1.04 %Noloadloss=0 NormHKVA=15 Phases=1 XHL=1.5 %imag=0 Wdg=1 Bus=B18979.3 kV=7.2 kVA=15 Wdg=2 Bus=X_B18979_C.3 kV=0.24 kVA=15
New Transformer.B18902_1A EmergHKVA=21 %Loadloss=1.04 %Noloadloss=0 NormHKVA=15 Phases=1 XHL=1.5 %imag=0 Wdg=1 Bus=B18902.1 kV=7.2 kVA=15 Wdg=2 Bus=X_B18902_A.1 kV=0.24 kVA=15
New Transformer.B2532_1A EmergHKVA=21 %Loadloss=1.04 %Noloadloss=0 NormHKVA=15 Phases=1 XHL=1.5 %imag=0 Wdg=1 Bus=B2532.1 kV=7.2 kVA=15 Wdg=2 Bus=X_B2532_A.1 kV=0.24 kVA=15
New Transformer.B47668_1A EmergHKVA=21 %Loadloss=1.04 %Noloadloss=0 NormHKVA=15 Phases=1 XHL=1.5 %imag=0 Wdg=1 Bus=B47668.1 kV=7.2 kVA=15 Wdg=2 Bus=X_B47668_A.1 kV=0.24 kVA=15
New Transformer.B47668_1C EmergHKVA=21 %Loadloss=1.04 %Noloadloss=0 NormHKVA=15 Phases=1 XHL=1.5 %imag=0 Wdg=1 Bus=B47668.3 kV=7.2 kVA=15 Wdg=2 Bus=X_B47668_C.3 kV=0.24 kVA=15
New Transformer.B4891_1C EmergHKVA=35 %Loadloss=0.7639 %Noloadloss=0 NormHKVA=25 Phases=1 XHL=2.1 %imag=0 Wdg=1 Bus=B4891.3 kV=7.2 kVA=25 Wdg=2 Bus=X_B4891_C.3 kV=0.24 kVA=25
New Transformer.B18858_1B EmergHKVA=21 %Loadloss=1.04 %Noloadloss=0 NormHKVA=15 Phases=1 XHL=1.5 %imag=0 Wdg=1 Bus=B18858.2 kV=7.2 kVA=15 Wdg=2 Bus=X_B18858_B.2 kV=0.24 kVA=15
New Transformer.5851228580_1C EmergHKVA=35 %Loadloss=0.7639 %Noloadloss=0 NormHKVA=25 Phases=1 XHL=2.1 %imag=0 Wdg=1 Bus=5851228580.3 kV=7.2 kVA=25 Wdg=2 Bus=X_5851228580_C.3 kV=0.24 kVA=25
New Transformer.B18971_1C EmergHKVA=35 %Loadloss=0.7639 %Noloadloss=0 NormHKVA=25 Phases=1 XHL=2.1 %imag=0 Wdg=1 Bus=B18971.3 kV=7.2 kVA=25 Wdg=2 Bus=X_B18971_C.3 kV=0.24 kVA=25
New Transformer.B8019_1C EmergHKVA=35 %Loadloss=0.7639 %Noloadloss=0 NormHKVA=25 Phases=1 XHL=2.1 %imag=0 Wdg=1 Bus=B8019.3 kV=7.2 kVA=25 Wdg=2 Bus=X_B8019_C.3 kV=0.24 kVA=25
New Transformer.B60843_1C EmergHKVA=21 %Loadloss=1.04 %Noloadloss=0 NormHKVA=15 Phases=1 XHL=1.5 %imag=0 Wdg=1 Bus=B60843.3 kV=7.2 kVA=15 Wdg=2 Bus=X_B60843_C.3 kV=0.24 kVA=15
New Transformer.B52584_1B EmergHKVA=35 %Loadloss=0.7639 %Noloadloss=0 NormHKVA=25 Phases=1 XHL=2.1 %imag=0 Wdg=1 Bus=B52584.2 kV=7.2 kVA=25 Wdg=2 Bus=X_B52584_B.2 kV=0.24 kVA=25
New Transformer.B41463_1C EmergHKVA=35 %Loadloss=0.7639 %Noloadloss=0 NormHKVA=25 Phases=1 XHL=2.1 %imag=0 Wdg=1 Bus=B41463.3 kV=7.2 kVA=25 Wdg=2 Bus=X_B41463_C.3 kV=0.24 kVA=25
New Transformer.5905728658_1B EmergHKVA=21 %Loadloss=1.04 %Noloadloss=0 NormHKVA=15 Phases=1 XHL=1.5 %imag=0 Wdg=1 Bus=5905728658.2 kV=7.2 kVA=15 Wdg=2 Bus=X_5905728658_B.2 kV=0.24 kVA=15
New Transformer.B18850_1B EmergHKVA=21 %Loadloss=1.04 %Noloadloss=0 NormHKVA=15 Phases=1 XHL=1.5 %imag=0 Wdg=1 Bus=B18850.2 kV=7.2 kVA=15 Wdg=2 Bus=X_B18850_B.2 kV=0.24 kVA=15
New Transformer.B18866_1A EmergHKVA=21 %Loadloss=1.04 %Noloadloss=0 NormHKVA=15 Phases=1 XHL=1.5 %imag=0 Wdg=1 Bus=B18866.1 kV=7.2 kVA=15 Wdg=2 Bus=X_B18866_A.1 kV=0.24 kVA=15
New Transformer.6060229368_1B EmergHKVA=35 %Loadloss=0.7639 %Noloadloss=0 NormHKVA=25 Phases=1 XHL=2.1 %imag=0 Wdg=1 Bus=6060229368.2 kV=7.2 kVA=25 Wdg=2 Bus=X_6060229368_B.2 kV=0.24 kVA=25
New Transformer.G43337_1A EmergHKVA=21 %Loadloss=1.04 %Noloadloss=0 NormHKVA=15 Phases=1 XHL=1.5 %imag=0 Wdg=1 Bus=G43337.1 kV=7.2 kVA=15 Wdg=2 Bus=X_G43337_A.1 kV=0.24 kVA=15
New Transformer.B18839_1B EmergHKVA=21 %Loadloss=1.04 %Noloadloss=0 NormHKVA=15 Phases=1 XHL=1.5 %imag=0 Wdg=1 Bus=B18839.2 kV=7.2 kVA=15 Wdg=2 Bus=X_B18839_B.2 kV=0.24 kVA=15
New Transformer.B46251_1C EmergHKVA=14 %Loadloss=1.022 %Noloadloss=0 NormHKVA=10 Phases=1 XHL=1.707 %imag=0 Wdg=1 Bus=B46251.3 kV=7.2 kVA=10 Wdg=2 Bus=X_B46251_C.3 kV=0.24 kVA=10
New Transformer.B22569_1A EmergHKVA=21 %Loadloss=1.04 %Noloadloss=0 NormHKVA=15 Phases=1 XHL=1.5 %imag=0 Wdg=1 Bus=B22569.1 kV=7.2 kVA=15 Wdg=2 Bus=X_B22569_A.1 kV=0.24 kVA=15
New Transformer.B63365_1B EmergHKVA=35 %Loadloss=0.7639 %Noloadloss=0 NormHKVA=25 Phases=1 XHL=2.1 %imag=0 Wdg=1 Bus=B63365.2 kV=7.2 kVA=25 Wdg=2 Bus=X_B63365_B.2 kV=0.24 kVA=25
New Transformer.B56446_1A EmergHKVA=21 %Loadloss=1.04 %Noloadloss=0 NormHKVA=15 Phases=1 XHL=1.5 %imag=0 Wdg=1 Bus=B56446.1 kV=7.2 kVA=15 Wdg=2 Bus=X_B56446_A.1 kV=0.24 kVA=15
New Transformer.B18986_1C EmergHKVA=35 %Loadloss=0.7639 %Noloadloss=0 NormHKVA=25 Phases=1 XHL=2.1 %imag=0 Wdg=1 Bus=B18986.3 kV=7.2 kVA=25 Wdg=2 Bus=X_B18986_C.3 kV=0.24 kVA=25
New Transformer.B13651_1A EmergHKVA=53.2 %Loadloss=0.7221 %Noloadloss=0 NormHKVA=37.5 Phases=1 XHL=1.5158 %imag=0 Wdg=1 Bus=B13651.1 kV=7.2 kVA=38 Wdg=2 Bus=X_B13651_A.1 kV=0.24 kVA=38
New Transformer.B17575_1C EmergHKVA=35 %Loadloss=0.7639 %Noloadloss=0 NormHKVA=25 Phases=1 XHL=2.1 %imag=0 Wdg=1 Bus=B17575.3 kV=7.2 kVA=25 Wdg=2 Bus=X_B17575_C.3 kV=0.24 kVA=25
New Transformer.B10925_1C EmergHKVA=21 %Loadloss=1.04 %Noloadloss=0 NormHKVA=15 Phases=1 XHL=1.5 %imag=0 Wdg=1 Bus=B10925.3 kV=7.2 kVA=15 Wdg=2 Bus=X_B10925_C.3 kV=0.24 kVA=15
New Transformer.B23406_1A EmergHKVA=35 %Loadloss=0.7639 %Noloadloss=0 NormHKVA=25 Phases=1 XHL=2.1 %imag=0 Wdg=1 Bus=B23406.1 kV=7.2 kVA=25 Wdg=2 Bus=X_B23406_A.1 kV=0.24 kVA=25
New Transformer.B4594_1C EmergHKVA=53.2 %Loadloss=0.7221 %Noloadloss=0 NormHKVA=37.5 Phases=1 XHL=1.5158 %imag=0 Wdg=1 Bus=B4594.3 kV=7.2 kVA=38 Wdg=2 Bus=X_B4594_C.3 kV=0.24 kVA=38
New Transformer.B5185_1C EmergHKVA=35 %Loadloss=0.7639 %Noloadloss=0 NormHKVA=25 Phases=1 XHL=2.1 %imag=0 Wdg=1 Bus=B5185.3 kV=7.2 kVA=25 Wdg=2 Bus=X_B5185_C.3 kV=0.24 kVA=25
New Transformer.B48180_1C EmergHKVA=21 %Loadloss=1.04 %Noloadloss=0 NormHKVA=15 Phases=1 XHL=1.5 %imag=0 Wdg=1 Bus=B48180.3 kV=7.2 kVA=15 Wdg=2 Bus=X_B48180_C.3 kV=0.24 kVA=15
New Transformer.G35573_1A EmergHKVA=53.2 %Loadloss=0.7221 %Noloadloss=0 NormHKVA=37.5 Phases=1 XHL=1.5158 %imag=0 Wdg=1 Bus=G35573.1 kV=7.2 kVA=38 Wdg=2 Bus=X_G35573_A.1 kV=0.24 kVA=38
New Transformer.G35573_1C EmergHKVA=53.2 %Loadloss=0.7221 %Noloadloss=0 NormHKVA=37.5 Phases=1 XHL=1.5158 %imag=0 Wdg=1 Bus=G35573.3 kV=7.2 kVA=38 Wdg=2 Bus=X_G35573_C.3 kV=0.24 kVA=38
New Transformer.B59582_1C EmergHKVA=21 %Loadloss=1.04 %Noloadloss=0 NormHKVA=15 Phases=1 XHL=1.5 %imag=0 Wdg=1 Bus=B59582.3 kV=7.2 kVA=15 Wdg=2 Bus=X_B59582_C.3 kV=0.24 kVA=15
New Transformer.B4861_1B EmergHKVA=53.2 %Loadloss=0.7221 %Noloadloss=0 NormHKVA=37.5 Phases=1 XHL=1.5158 %imag=0 Wdg=1 Bus=B4861.2 kV=7.2 kVA=38 Wdg=2 Bus=X_B4861_B.2 kV=0.24 kVA=38
New Transformer.B62294_1C EmergHKVA=35 %Loadloss=0.7639 %Noloadloss=0 NormHKVA=25 Phases=1 XHL=2.1 %imag=0 Wdg=1 Bus=B62294.3 kV=7.2 kVA=25 Wdg=2 Bus=X_B62294_C.3 kV=0.24 kVA=25
New Transformer.B34541_1A EmergHKVA=21 %Loadloss=1.04 %Noloadloss=0 NormHKVA=15 Phases=1 XHL=1.5 %imag=0 Wdg=1 Bus=B34541.1 kV=7.2 kVA=15 Wdg=2 Bus=X_B34541_A.1 kV=0.24 kVA=15
New Transformer.B19071_1C EmergHKVA=21 %Loadloss=1.04 %Noloadloss=0 NormHKVA=15 Phases=1 XHL=1.5 %imag=0 Wdg=1 Bus=B19071.3 kV=7.2 kVA=15 Wdg=2 Bus=X_B19071_C.3 kV=0.24 kVA=15
New Transformer.B39820_1C EmergHKVA=35 %Loadloss=0.7639 %Noloadloss=0 NormHKVA=25 Phases=1 XHL=2.1 %imag=0 Wdg=1 Bus=B39820.3 kV=7.2 kVA=25 Wdg=2 Bus=X_B39820_C.3 kV=0.24 kVA=25
New Transformer.5857829226_1C EmergHKVA=35 %Loadloss=0.7639 %Noloadloss=0 NormHKVA=25 Phases=1 XHL=2.1 %imag=0 Wdg=1 Bus=5857829226.3 kV=7.2 kVA=25 Wdg=2 Bus=X_5857829226_C.3 kV=0.24 kVA=25
New Transformer.5920428274_1C EmergHKVA=35 %Loadloss=0.7639 %Noloadloss=0 NormHKVA=25 Phases=1 XHL=2.1 %imag=0 Wdg=1 Bus=5920428274.3 kV=7.2 kVA=25 Wdg=2 Bus=X_5920428274_C.3 kV=0.24 kVA=25
New Transformer.B24281_1C EmergHKVA=21 %Loadloss=1.04 %Noloadloss=0 NormHKVA=15 Phases=1 XHL=1.5 %imag=0 Wdg=1 Bus=B24281.3 kV=7.2 kVA=15 Wdg=2 Bus=X_B24281_C.3 kV=0.24 kVA=15
New Transformer.B18912_1B EmergHKVA=35 %Loadloss=0.7639 %Noloadloss=0 NormHKVA=25 Phases=1 XHL=2.1 %imag=0 Wdg=1 Bus=B18912.2 kV=7.2 kVA=25 Wdg=2 Bus=X_B18912_B.2 kV=0.24 kVA=25
New Transformer.B60940_1C EmergHKVA=35 %Loadloss=0.7639 %Noloadloss=0 NormHKVA=25 Phases=1 XHL=2.1 %imag=0 Wdg=1 Bus=B60940.3 kV=7.2 kVA=25 Wdg=2 Bus=X_B60940_C.3 kV=0.24 kVA=25
New Transformer.B4579_1C EmergHKVA=28 %Loadloss=1.04 %Noloadloss=0 NormHKVA=20 Phases=1 XHL=1.5 %imag=0 Wdg=1 Bus=B4579.3 kV=7.2 kVA=20 Wdg=2 Bus=X_B4579_C.3 kV=0.24 kVA=20
New Transformer.B4994_1A EmergHKVA=21 %Loadloss=1.04 %Noloadloss=0 NormHKVA=15 Phases=1 XHL=1.5 %imag=0 Wdg=1 Bus=B4994.1 kV=7.2 kVA=15 Wdg=2 Bus=X_B4994_A.1 kV=0.24 kVA=15
New Transformer.B61632_1A EmergHKVA=140 %Loadloss=0.7237 %Noloadloss=0 NormHKVA=100 Phases=1 XHL=2.1557 %imag=0 Wdg=1 Bus=B61632.1 kV=7.2 kVA=100 Wdg=2 Bus=X_B61632_A.1 kV=0.24 kVA=100
New Transformer.B61632_1B EmergHKVA=140 %Loadloss=0.7237 %Noloadloss=0 NormHKVA=100 Phases=1 XHL=2.1557 %imag=0 Wdg=1 Bus=B61632.2 kV=7.2 kVA=100 Wdg=2 Bus=X_B61632_B.2 kV=0.24 kVA=100
New Transformer.B18886_1B EmergHKVA=21 %Loadloss=1.04 %Noloadloss=0 NormHKVA=15 Phases=1 XHL=1.5 %imag=0 Wdg=1 Bus=B18886.2 kV=7.2 kVA=15 Wdg=2 Bus=X_B18886_B.2 kV=0.24 kVA=15
New Transformer.G40138_1C EmergHKVA=21 %Loadloss=1.04 %Noloadloss=0 NormHKVA=15 Phases=1 XHL=1.5 %imag=0 Wdg=1 Bus=G40138.3 kV=7.2 kVA=15 Wdg=2 Bus=X_G40138_C.3 kV=0.24 kVA=15
New Transformer.B18855_1B EmergHKVA=21 %Loadloss=1.04 %Noloadloss=0 NormHKVA=15 Phases=1 XHL=1.5 %imag=0 Wdg=1 Bus=B18855.2 kV=7.2 kVA=15 Wdg=2 Bus=X_B18855_B.2 kV=0.24 kVA=15
New Transformer.B4673_1A EmergHKVA=35 %Loadloss=0.7639 %Noloadloss=0 NormHKVA=25 Phases=1 XHL=2.1 %imag=0 Wdg=1 Bus=B4673.1 kV=7.2 kVA=25 Wdg=2 Bus=X_B4673_A.1 kV=0.24 kVA=25
New Transformer.B45445_1C EmergHKVA=14 %Loadloss=1.022 %Noloadloss=0 NormHKVA=10 Phases=1 XHL=1.707 %imag=0 Wdg=1 Bus=B45445.3 kV=7.2 kVA=10 Wdg=2 Bus=X_B45445_C.3 kV=0.24 kVA=10
New Transformer.B57500_1B EmergHKVA=21 %Loadloss=1.04 %Noloadloss=0 NormHKVA=15 Phases=1 XHL=1.5 %imag=0 Wdg=1 Bus=B57500.2 kV=7.2 kVA=15 Wdg=2 Bus=X_B57500_B.2 kV=0.24 kVA=15
New Transformer.B60757_1C EmergHKVA=21 %Loadloss=1.04 %Noloadloss=0 NormHKVA=15 Phases=1 XHL=1.5 %imag=0 Wdg=1 Bus=B60757.3 kV=7.2 kVA=15 Wdg=2 Bus=X_B60757_C.3 kV=0.24 kVA=15
New Transformer.G34723_1C EmergHKVA=21 %Loadloss=1.04 %Noloadloss=0 NormHKVA=15 Phases=1 XHL=1.5 %imag=0 Wdg=1 Bus=G34723.3 kV=7.2 kVA=15 Wdg=2 Bus=X_G34723_C.3 kV=0.24 kVA=15
New Transformer.B22571_1C EmergHKVA=21 %Loadloss=1.04 %Noloadloss=0 NormHKVA=15 Phases=1 XHL=1.5 %imag=0 Wdg=1 Bus=B22571.3 kV=7.2 kVA=15 Wdg=2 Bus=X_B22571_C.3 kV=0.24 kVA=15
New Transformer.B13555_1A EmergHKVA=35 %Loadloss=0.7639 %Noloadloss=0 NormHKVA=25 Phases=1 XHL=2.1 %imag=0 Wdg=1 Bus=B13555.1 kV=7.2 kVA=25 Wdg=2 Bus=X_B13555_A.1 kV=0.24 kVA=25
New Transformer.B23889_1C EmergHKVA=21 %Loadloss=1.04 %Noloadloss=0 NormHKVA=15 Phases=1 XHL=1.5 %imag=0 Wdg=1 Bus=B23889.3 kV=7.2 kVA=15 Wdg=2 Bus=X_B23889_C.3 kV=0.24 kVA=15
New Transformer.B43440_1B EmergHKVA=53.2 %Loadloss=0.7221 %Noloadloss=0 NormHKVA=37.5 Phases=1 XHL=1.5158 %imag=0 Wdg=1 Bus=B43440.2 kV=7.2 kVA=38 Wdg=2 Bus=X_B43440_B.2 kV=0.24 kVA=38
New Transformer.5904428572_1B EmergHKVA=21 %Loadloss=1.04 %Noloadloss=0 NormHKVA=15 Phases=1 XHL=1.5 %imag=0 Wdg=1 Bus=5904428572.2 kV=7.2 kVA=15 Wdg=2 Bus=X_5904428572_B.2 kV=0.24 kVA=15
New Transformer.B19021_1A EmergHKVA=21 %Loadloss=1.04 %Noloadloss=0 NormHKVA=15 Phases=1 XHL=1.5 %imag=0 Wdg=1 Bus=B19021.1 kV=7.2 kVA=15 Wdg=2 Bus=X_B19021_A.1 kV=0.24 kVA=15
New Transformer.6053129341_1B EmergHKVA=35 %Loadloss=0.7639 %Noloadloss=0 NormHKVA=25 Phases=1 XHL=2.1 %imag=0 Wdg=1 Bus=6053129341.2 kV=7.2 kVA=25 Wdg=2 Bus=X_6053129341_B.2 kV=0.24 kVA=25
New Transformer.B60934_1C EmergHKVA=21 %Loadloss=1.04 %Noloadloss=0 NormHKVA=15 Phases=1 XHL=1.5 %imag=0 Wdg=1 Bus=B60934.3 kV=7.2 kVA=15 Wdg=2 Bus=X_B60934_C.3 kV=0.24 kVA=15
New Transformer.5993629800_1B EmergHKVA=35 %Loadloss=0.7639 %Noloadloss=0 NormHKVA=25 Phases=1 XHL=2.1 %imag=0 Wdg=1 Bus=5993629800.2 kV=7.2 kVA=25 Wdg=2 Bus=X_5993629800_B.2 kV=0.24 kVA=25
New Transformer.B59172_1B EmergHKVA=35 %Loadloss=0.7639 %Noloadloss=0 NormHKVA=25 Phases=1 XHL=2.1 %imag=0 Wdg=1 Bus=B59172.2 kV=7.2 kVA=25 Wdg=2 Bus=X_B59172_B.2 kV=0.24 kVA=25
New Transformer.B28551_1C EmergHKVA=14 %Loadloss=1.022 %Noloadloss=0 NormHKVA=10 Phases=1 XHL=1.707 %imag=0 Wdg=1 Bus=B28551.3 kV=7.2 kVA=10 Wdg=2 Bus=X_B28551_C.3 kV=0.24 kVA=10
New Transformer.B4795_1C EmergHKVA=35 %Loadloss=0.7639 %Noloadloss=0 NormHKVA=25 Phases=1 XHL=2.1 %imag=0 Wdg=1 Bus=B4795.3 kV=7.2 kVA=25 Wdg=2 Bus=X_B4795_C.3 kV=0.24 kVA=25
New Transformer.B5186_1B EmergHKVA=21 %Loadloss=1.04 %Noloadloss=0 NormHKVA=15 Phases=1 XHL=1.5 %imag=0 Wdg=1 Bus=B5186.2 kV=7.2 kVA=15 Wdg=2 Bus=X_B5186_B.2 kV=0.24 kVA=15
New Transformer.B5193_1B EmergHKVA=21 %Loadloss=1.04 %Noloadloss=0 NormHKVA=15 Phases=1 XHL=1.5 %imag=0 Wdg=1 Bus=B5193.2 kV=7.2 kVA=15 Wdg=2 Bus=X_B5193_B.2 kV=0.24 kVA=15
New Transformer.B56325_1C EmergHKVA=233.8 %Loadloss=0.598 %Noloadloss=0 NormHKVA=167 Phases=1 XHL=1.5 %imag=0 Wdg=1 Bus=B56325.3 kV=7.2 kVA=167 Wdg=2 Bus=X_B56325_C.3 kV=0.24 kVA=167
New Transformer.G42979_1C EmergHKVA=35 %Loadloss=0.7639 %Noloadloss=0 NormHKVA=25 Phases=1 XHL=2.1 %imag=0 Wdg=1 Bus=G42979.3 kV=7.2 kVA=25 Wdg=2 Bus=X_G42979_C.3 kV=0.24 kVA=25
New Transformer.5839828569_1A EmergHKVA=21 %Loadloss=1.04 %Noloadloss=0 NormHKVA=15 Phases=1 XHL=1.5 %imag=0 Wdg=1 Bus=5839828569.1 kV=7.2 kVA=15 Wdg=2 Bus=X_5839828569_A.1 kV=0.24 kVA=15
New Transformer.5839828569_1B EmergHKVA=21 %Loadloss=1.04 %Noloadloss=0 NormHKVA=15 Phases=1 XHL=1.5 %imag=0 Wdg=1 Bus=5839828569.2 kV=7.2 kVA=15 Wdg=2 Bus=X_5839828569_B.2 kV=0.24 kVA=15
New Transformer.B60930_1C EmergHKVA=35 %Loadloss=0.7639 %Noloadloss=0 NormHKVA=25 Phases=1 XHL=2.1 %imag=0 Wdg=1 Bus=B60930.3 kV=7.2 kVA=25 Wdg=2 Bus=X_B60930_C.3 kV=0.24 kVA=25
New Transformer.B58961_1A EmergHKVA=21 %Loadloss=1.04 %Noloadloss=0 NormHKVA=15 Phases=1 XHL=1.5 %imag=0 Wdg=1 Bus=B58961.1 kV=7.2 kVA=15 Wdg=2 Bus=X_B58961_A.1 kV=0.24 kVA=15
New Transformer.B61236_1C EmergHKVA=21 %Loadloss=1.04 %Noloadloss=0 NormHKVA=15 Phases=1 XHL=1.5 %imag=0 Wdg=1 Bus=B61236.3 kV=7.2 kVA=15 Wdg=2 Bus=X_B61236_C.3 kV=0.24 kVA=15
New Transformer.B18999_1C EmergHKVA=21 %Loadloss=1.04 %Noloadloss=0 NormHKVA=15 Phases=1 XHL=1.5 %imag=0 Wdg=1 Bus=B18999.3 kV=7.2 kVA=15 Wdg=2 Bus=X_B18999_C.3 kV=0.24 kVA=15
New Transformer.B4811_1A EmergHKVA=44.8 %Loadloss=0.7639 %Noloadloss=0 NormHKVA=32.5 Phases=1 XHL=2.1 %imag=0 Wdg=1 Bus=B4811.1 kV=7.2 kVA=32 Wdg=2 Bus=X_B4811_A.1 kV=0.24 kVA=32
New Transformer.B4811_1B EmergHKVA=44.8 %Loadloss=0.7639 %Noloadloss=0 NormHKVA=32.5 Phases=1 XHL=2.1 %imag=0 Wdg=1 Bus=B4811.2 kV=7.2 kVA=32 Wdg=2 Bus=X_B4811_B.2 kV=0.24 kVA=32
New Transformer.B37083_1B EmergHKVA=35 %Loadloss=0.7639 %Noloadloss=0 NormHKVA=25 Phases=1 XHL=2.1 %imag=0 Wdg=1 Bus=B37083.2 kV=7.2 kVA=25 Wdg=2 Bus=X_B37083_B.2 kV=0.24 kVA=25
New Transformer.B41906_1A EmergHKVA=14 %Loadloss=1.022 %Noloadloss=0 NormHKVA=10 Phases=1 XHL=1.707 %imag=0 Wdg=1 Bus=B41906.1 kV=7.2 kVA=10 Wdg=2 Bus=X_B41906_A.1 kV=0.24 kVA=10
New Transformer.B24506_1C EmergHKVA=21 %Loadloss=1.04 %Noloadloss=0 NormHKVA=15 Phases=1 XHL=1.5 %imag=0 Wdg=1 Bus=B24506.3 kV=7.2 kVA=15 Wdg=2 Bus=X_B24506_C.3 kV=0.24 kVA=15
New Transformer.B4729_1C EmergHKVA=35 %Loadloss=0.7639 %Noloadloss=0 NormHKVA=25 Phases=1 XHL=2.1 %imag=0 Wdg=1 Bus=B4729.3 kV=7.2 kVA=25 Wdg=2 Bus=X_B4729_C.3 kV=0.24 kVA=25
New Transformer.B41547_1B EmergHKVA=21 %Loadloss=1.04 %Noloadloss=0 NormHKVA=15 Phases=1 XHL=1.5 %imag=0 Wdg=1 Bus=B41547.2 kV=7.2 kVA=15 Wdg=2 Bus=X_B41547_B.2 kV=0.24 kVA=15
New Transformer.B4586_1A EmergHKVA=35 %Loadloss=0.7639 %Noloadloss=0 NormHKVA=25 Phases=1 XHL=2.1 %imag=0 Wdg=1 Bus=B4586.1 kV=7.2 kVA=25 Wdg=2 Bus=X_B4586_A.1 kV=0.24 kVA=25
New Transformer.B61759_1C EmergHKVA=35 %Loadloss=0.7639 %Noloadloss=0 NormHKVA=25 Phases=1 XHL=2.1 %imag=0 Wdg=1 Bus=B61759.3 kV=7.2 kVA=25 Wdg=2 Bus=X_B61759_C.3 kV=0.24 kVA=25
New Transformer.B18914_1A EmergHKVA=35 %Loadloss=0.7639 %Noloadloss=0 NormHKVA=25 Phases=1 XHL=2.1 %imag=0 Wdg=1 Bus=B18914.1 kV=7.2 kVA=25 Wdg=2 Bus=X_B18914_A.1 kV=0.24 kVA=25
New Transformer.B16658_1A EmergHKVA=21 %Loadloss=1.04 %Noloadloss=0 NormHKVA=15 Phases=1 XHL=1.5 %imag=0 Wdg=1 Bus=B16658.1 kV=7.2 kVA=15 Wdg=2 Bus=X_B16658_A.1 kV=0.24 kVA=15
New Transformer.B27838_1C EmergHKVA=35 %Loadloss=0.7639 %Noloadloss=0 NormHKVA=25 Phases=1 XHL=2.1 %imag=0 Wdg=1 Bus=B27838.3 kV=7.2 kVA=25 Wdg=2 Bus=X_B27838_C.3 kV=0.24 kVA=25
New Transformer.B12329_1A EmergHKVA=14 %Loadloss=1.022 %Noloadloss=0 NormHKVA=10 Phases=1 XHL=1.707 %imag=0 Wdg=1 Bus=B12329.1 kV=7.2 kVA=10 Wdg=2 Bus=X_B12329_A.1 kV=0.24 kVA=10
New Transformer.B4802_1A EmergHKVA=35 %Loadloss=0.7639 %Noloadloss=0 NormHKVA=25 Phases=1 XHL=2.1 %imag=0 Wdg=1 Bus=B4802.1 kV=7.2 kVA=25 Wdg=2 Bus=X_B4802_A.1 kV=0.24 kVA=25
New Transformer.B52170_1C EmergHKVA=21 %Loadloss=1.04 %Noloadloss=0 NormHKVA=15 Phases=1 XHL=1.5 %imag=0 Wdg=1 Bus=B52170.3 kV=7.2 kVA=15 Wdg=2 Bus=X_B52170_C.3 kV=0.24 kVA=15
New Transformer.B15828_1C EmergHKVA=21 %Loadloss=1.04 %Noloadloss=0 NormHKVA=15 Phases=1 XHL=1.5 %imag=0 Wdg=1 Bus=B15828.3 kV=7.2 kVA=15 Wdg=2 Bus=X_B15828_C.3 kV=0.24 kVA=15
New Transformer.B60889_1B EmergHKVA=35 %Loadloss=0.7639 %Noloadloss=0 NormHKVA=25 Phases=1 XHL=2.1 %imag=0 Wdg=1 Bus=B60889.2 kV=7.2 kVA=25 Wdg=2 Bus=X_B60889_B.2 kV=0.24 kVA=25
New Transformer.B19066_1C EmergHKVA=21 %Loadloss=1.04 %Noloadloss=0 NormHKVA=15 Phases=1 XHL=1.5 %imag=0 Wdg=1 Bus=B19066.3 kV=7.2 kVA=15 Wdg=2 Bus=X_B19066_C.3 kV=0.24 kVA=15
New Transformer.B11365_1B EmergHKVA=28 %Loadloss=1.04 %Noloadloss=0 NormHKVA=20 Phases=1 XHL=1.5 %imag=0 Wdg=1 Bus=B11365.2 kV=7.2 kVA=20 Wdg=2 Bus=X_B11365_B.2 kV=0.24 kVA=20
New Transformer.B24275_1C EmergHKVA=35 %Loadloss=0.7639 %Noloadloss=0 NormHKVA=25 Phases=1 XHL=2.1 %imag=0 Wdg=1 Bus=B24275.3 kV=7.2 kVA=25 Wdg=2 Bus=X_B24275_C.3 kV=0.24 kVA=25
New Transformer.B5213_1C EmergHKVA=21 %Loadloss=1.04 %Noloadloss=0 NormHKVA=15 Phases=1 XHL=1.5 %imag=0 Wdg=1 Bus=B5213.3 kV=7.2 kVA=15 Wdg=2 Bus=X_B5213_C.3 kV=0.24 kVA=15
New Transformer.B63378_1C EmergHKVA=21 %Loadloss=1.04 %Noloadloss=0 NormHKVA=15 Phases=1 XHL=1.5 %imag=0 Wdg=1 Bus=B63378.3 kV=7.2 kVA=15 Wdg=2 Bus=X_B63378_C.3 kV=0.24 kVA=15
New Transformer.B29964_1B EmergHKVA=7 %Loadloss=1.022 %Noloadloss=0 NormHKVA=5 Phases=1 XHL=1.707 %imag=0 Wdg=1 Bus=B29964.2 kV=7.2 kVA=5 Wdg=2 Bus=X_B29964_B.2 kV=0.24 kVA=5
New Transformer.5911428269_1C EmergHKVA=35 %Loadloss=0.7639 %Noloadloss=0 NormHKVA=25 Phases=1 XHL=2.1 %imag=0 Wdg=1 Bus=5911428269.3 kV=7.2 kVA=25 Wdg=2 Bus=X_5911428269_C.3 kV=0.24 kVA=25
New Transformer.5976529574_1B EmergHKVA=35 %Loadloss=0.7639 %Noloadloss=0 NormHKVA=25 Phases=1 XHL=2.1 %imag=0 Wdg=1 Bus=5976529574.2 kV=7.2 kVA=25 Wdg=2 Bus=X_5976529574_B.2 kV=0.24 kVA=25
New Transformer.B66452_1A EmergHKVA=35 %Loadloss=0.7639 %Noloadloss=0 NormHKVA=25 Phases=1 XHL=2.1 %imag=0 Wdg=1 Bus=B66452.1 kV=7.2 kVA=25 Wdg=2 Bus=X_B66452_A.1 kV=0.24 kVA=25
New Transformer.B29181_1A EmergHKVA=21 %Loadloss=1.04 %Noloadloss=0 NormHKVA=15 Phases=1 XHL=1.5 %imag=0 Wdg=1 Bus=B29181.1 kV=7.2 kVA=15 Wdg=2 Bus=X_B29181_A.1 kV=0.24 kVA=15
New Transformer.B59935_1A EmergHKVA=21 %Loadloss=1.04 %Noloadloss=0 NormHKVA=15 Phases=1 XHL=1.5 %imag=0 Wdg=1 Bus=B59935.1 kV=7.2 kVA=15 Wdg=2 Bus=X_B59935_A.1 kV=0.24 kVA=15
New Transformer.B14647_1B EmergHKVA=35 %Loadloss=0.7639 %Noloadloss=0 NormHKVA=25 Phases=1 XHL=2.1 %imag=0 Wdg=1 Bus=B14647.2 kV=7.2 kVA=25 Wdg=2 Bus=X_B14647_B.2 kV=0.24 kVA=25
New Transformer.B4668_1A EmergHKVA=53.2 %Loadloss=0.7221 %Noloadloss=0 NormHKVA=37.5 Phases=1 XHL=1.5158 %imag=0 Wdg=1 Bus=B4668.1 kV=7.2 kVA=38 Wdg=2 Bus=X_B4668_A.1 kV=0.24 kVA=38
New Transformer.B23862_1C EmergHKVA=70 %Loadloss=0.738 %Noloadloss=0 NormHKVA=50 Phases=1 XHL=1.7532 %imag=0 Wdg=1 Bus=B23862.3 kV=7.2 kVA=50 Wdg=2 Bus=X_B23862_C.3 kV=0.24 kVA=50
New Transformer.B13648_1C EmergHKVA=53.2 %Loadloss=0.7221 %Noloadloss=0 NormHKVA=37.5 Phases=1 XHL=1.5158 %imag=0 Wdg=1 Bus=B13648.3 kV=7.2 kVA=38 Wdg=2 Bus=X_B13648_C.3 kV=0.24 kVA=38
New Transformer.B13930_1C EmergHKVA=53.2 %Loadloss=0.7221 %Noloadloss=0 NormHKVA=37.5 Phases=1 XHL=1.5158 %imag=0 Wdg=1 Bus=B13930.3 kV=7.2 kVA=38 Wdg=2 Bus=X_B13930_C.3 kV=0.24 kVA=38
New Transformer.B4828_1A EmergHKVA=7 %Loadloss=1.022 %Noloadloss=0 NormHKVA=5 Phases=1 XHL=1.707 %imag=0 Wdg=1 Bus=B4828.1 kV=7.2 kVA=5 Wdg=2 Bus=X_B4828_A.1 kV=0.24 kVA=5
New Transformer.G33899_1B EmergHKVA=21 %Loadloss=1.04 %Noloadloss=0 NormHKVA=15 Phases=1 XHL=1.5 %imag=0 Wdg=1 Bus=G33899.2 kV=7.2 kVA=15 Wdg=2 Bus=X_G33899_B.2 kV=0.24 kVA=15
New Transformer.5869628416_1A EmergHKVA=53.2 %Loadloss=0.7221 %Noloadloss=0 NormHKVA=37.5 Phases=1 XHL=1.5158 %imag=0 Wdg=1 Bus=5869628416.1 kV=7.2 kVA=38 Wdg=2 Bus=X_5869628416_A.1 kV=0.24 kVA=38
New Transformer.B13553_1A EmergHKVA=35 %Loadloss=0.7639 %Noloadloss=0 NormHKVA=25 Phases=1 XHL=2.1 %imag=0 Wdg=1 Bus=B13553.1 kV=7.2 kVA=25 Wdg=2 Bus=X_B13553_A.1 kV=0.24 kVA=25
New Transformer.B19039_1B EmergHKVA=35 %Loadloss=0.7639 %Noloadloss=0 NormHKVA=25 Phases=1 XHL=2.1 %imag=0 Wdg=1 Bus=B19039.2 kV=7.2 kVA=25 Wdg=2 Bus=X_B19039_B.2 kV=0.24 kVA=25
New Transformer.B56614_1A EmergHKVA=21 %Loadloss=1.04 %Noloadloss=0 NormHKVA=15 Phases=1 XHL=1.5 %imag=0 Wdg=1 Bus=B56614.1 kV=7.2 kVA=15 Wdg=2 Bus=X_B56614_A.1 kV=0.24 kVA=15
New Transformer.B17215_1C EmergHKVA=21 %Loadloss=1.04 %Noloadloss=0 NormHKVA=15 Phases=1 XHL=1.5 %imag=0 Wdg=1 Bus=B17215.3 kV=7.2 kVA=15 Wdg=2 Bus=X_B17215_C.3 kV=0.24 kVA=15
New Transformer.B56691_1A EmergHKVA=35 %Loadloss=0.7639 %Noloadloss=0 NormHKVA=25 Phases=1 XHL=2.1 %imag=0 Wdg=1 Bus=B56691.1 kV=7.2 kVA=25 Wdg=2 Bus=X_B56691_A.1 kV=0.24 kVA=25
New Transformer.B61608_1C EmergHKVA=21 %Loadloss=1.04 %Noloadloss=0 NormHKVA=15 Phases=1 XHL=1.5 %imag=0 Wdg=1 Bus=B61608.3 kV=7.2 kVA=15 Wdg=2 Bus=X_B61608_C.3 kV=0.24 kVA=15
New Transformer.5840028380_1C EmergHKVA=21 %Loadloss=1.04 %Noloadloss=0 NormHKVA=15 Phases=1 XHL=1.5 %imag=0 Wdg=1 Bus=5840028380.3 kV=7.2 kVA=15 Wdg=2 Bus=X_5840028380_C.3 kV=0.24 kVA=15
New Transformer.B4781_1C EmergHKVA=21 %Loadloss=1.04 %Noloadloss=0 NormHKVA=15 Phases=1 XHL=1.5 %imag=0 Wdg=1 Bus=B4781.3 kV=7.2 kVA=15 Wdg=2 Bus=X_B4781_C.3 kV=0.24 kVA=15
New Transformer.B59109_1B EmergHKVA=35 %Loadloss=0.7639 %Noloadloss=0 NormHKVA=25 Phases=1 XHL=2.1 %imag=0 Wdg=1 Bus=B59109.2 kV=7.2 kVA=25 Wdg=2 Bus=X_B59109_B.2 kV=0.24 kVA=25
New Transformer.B56674_1B EmergHKVA=21 %Loadloss=1.04 %Noloadloss=0 NormHKVA=15 Phases=1 XHL=1.5 %imag=0 Wdg=1 Bus=B56674.2 kV=7.2 kVA=15 Wdg=2 Bus=X_B56674_B.2 kV=0.24 kVA=15
New Transformer.B55313_1B EmergHKVA=21 %Loadloss=1.04 %Noloadloss=0 NormHKVA=15 Phases=1 XHL=1.5 %imag=0 Wdg=1 Bus=B55313.2 kV=7.2 kVA=15 Wdg=2 Bus=X_B55313_B.2 kV=0.24 kVA=15
New Transformer.B4607_1C EmergHKVA=35 %Loadloss=0.7639 %Noloadloss=0 NormHKVA=25 Phases=1 XHL=2.1 %imag=0 Wdg=1 Bus=B4607.3 kV=7.2 kVA=25 Wdg=2 Bus=X_B4607_C.3 kV=0.24 kVA=25
New Transformer.B57664_1C EmergHKVA=21 %Loadloss=1.04 %Noloadloss=0 NormHKVA=15 Phases=1 XHL=1.5 %imag=0 Wdg=1 Bus=B57664.3 kV=7.2 kVA=15 Wdg=2 Bus=X_B57664_C.3 kV=0.24 kVA=15
New Transformer.6012728993_1B EmergHKVA=53.2 %Loadloss=0.7221 %Noloadloss=0 NormHKVA=37.5 Phases=1 XHL=1.5158 %imag=0 Wdg=1 Bus=6012728993.2 kV=7.2 kVA=38 Wdg=2 Bus=X_6012728993_B.2 kV=0.24 kVA=38
New Transformer.B41858_1B EmergHKVA=21 %Loadloss=1.04 %Noloadloss=0 NormHKVA=15 Phases=1 XHL=1.5 %imag=0 Wdg=1 Bus=B41858.2 kV=7.2 kVA=15 Wdg=2 Bus=X_B41858_B.2 kV=0.24 kVA=15
New Transformer.B39683_1A EmergHKVA=53.2 %Loadloss=0.7221 %Noloadloss=0 NormHKVA=37.5 Phases=1 XHL=1.5158 %imag=0 Wdg=1 Bus=B39683.1 kV=7.2 kVA=38 Wdg=2 Bus=X_B39683_A.1 kV=0.24 kVA=38
New Transformer.B48056_1B EmergHKVA=53.2 %Loadloss=0.7221 %Noloadloss=0 NormHKVA=37.5 Phases=1 XHL=1.5158 %imag=0 Wdg=1 Bus=B48056.2 kV=7.2 kVA=38 Wdg=2 Bus=X_B48056_B.2 kV=0.24 kVA=38
New Transformer.B48056_1C EmergHKVA=53.2 %Loadloss=0.7221 %Noloadloss=0 NormHKVA=37.5 Phases=1 XHL=1.5158 %imag=0 Wdg=1 Bus=B48056.3 kV=7.2 kVA=38 Wdg=2 Bus=X_B48056_C.3 kV=0.24 kVA=38
New Transformer.B4806_1B EmergHKVA=53.2 %Loadloss=0.7221 %Noloadloss=0 NormHKVA=37.5 Phases=1 XHL=1.5158 %imag=0 Wdg=1 Bus=B4806.2 kV=7.2 kVA=38 Wdg=2 Bus=X_B4806_B.2 kV=0.24 kVA=38
New Transformer.B4806_1C EmergHKVA=53.2 %Loadloss=0.7221 %Noloadloss=0 NormHKVA=37.5 Phases=1 XHL=1.5158 %imag=0 Wdg=1 Bus=B4806.3 kV=7.2 kVA=38 Wdg=2 Bus=X_B4806_C.3 kV=0.24 kVA=38
New Transformer.B4711_1B EmergHKVA=35 %Loadloss=0.7639 %Noloadloss=0 NormHKVA=25 Phases=1 XHL=2.1 %imag=0 Wdg=1 Bus=B4711.2 kV=7.2 kVA=25 Wdg=2 Bus=X_B4711_B.2 kV=0.24 kVA=25
New Transformer.B5218_1B EmergHKVA=21 %Loadloss=1.04 %Noloadloss=0 NormHKVA=15 Phases=1 XHL=1.5 %imag=0 Wdg=1 Bus=B5218.2 kV=7.2 kVA=15 Wdg=2 Bus=X_B5218_B.2 kV=0.24 kVA=15
New Transformer.B4963_1C EmergHKVA=21 %Loadloss=1.04 %Noloadloss=0 NormHKVA=15 Phases=1 XHL=1.5 %imag=0 Wdg=1 Bus=B4963.3 kV=7.2 kVA=15 Wdg=2 Bus=X_B4963_C.3 kV=0.24 kVA=15
New Transformer.B56665_1B EmergHKVA=56 %Loadloss=0.7221 %Noloadloss=0 NormHKVA=40 Phases=1 XHL=1.5158 %imag=0 Wdg=1 Bus=B56665.2 kV=7.2 kVA=40 Wdg=2 Bus=X_B56665_B.2 kV=0.24 kVA=40
New Transformer.B63613_1C EmergHKVA=35 %Loadloss=0.7639 %Noloadloss=0 NormHKVA=25 Phases=1 XHL=2.1 %imag=0 Wdg=1 Bus=B63613.3 kV=7.2 kVA=25 Wdg=2 Bus=X_B63613_C.3 kV=0.24 kVA=25
New Transformer.B18975_1C EmergHKVA=35 %Loadloss=0.7639 %Noloadloss=0 NormHKVA=25 Phases=1 XHL=2.1 %imag=0 Wdg=1 Bus=B18975.3 kV=7.2 kVA=25 Wdg=2 Bus=X_B18975_C.3 kV=0.24 kVA=25
New Transformer.B30794_1A EmergHKVA=35 %Loadloss=0.7639 %Noloadloss=0 NormHKVA=25 Phases=1 XHL=2.1 %imag=0 Wdg=1 Bus=B30794.1 kV=7.2 kVA=25 Wdg=2 Bus=X_B30794_A.1 kV=0.24 kVA=25
New Transformer.B30794_1B EmergHKVA=35 %Loadloss=0.7639 %Noloadloss=0 NormHKVA=25 Phases=1 XHL=2.1 %imag=0 Wdg=1 Bus=B30794.2 kV=7.2 kVA=25 Wdg=2 Bus=X_B30794_B.2 kV=0.24 kVA=25
New Transformer.B60689_1B EmergHKVA=21 %Loadloss=1.04 %Noloadloss=0 NormHKVA=15 Phases=1 XHL=1.5 %imag=0 Wdg=1 Bus=B60689.2 kV=7.2 kVA=15 Wdg=2 Bus=X_B60689_B.2 kV=0.24 kVA=15
New Transformer.B4708_1A EmergHKVA=21 %Loadloss=1.04 %Noloadloss=0 NormHKVA=15 Phases=1 XHL=1.5 %imag=0 Wdg=1 Bus=B4708.1 kV=7.2 kVA=15 Wdg=2 Bus=X_B4708_A.1 kV=0.24 kVA=15
New Transformer.B22565_1A EmergHKVA=21 %Loadloss=1.04 %Noloadloss=0 NormHKVA=15 Phases=1 XHL=1.5 %imag=0 Wdg=1 Bus=B22565.1 kV=7.2 kVA=15 Wdg=2 Bus=X_B22565_A.1 kV=0.24 kVA=15
New Transformer.B11418_1B EmergHKVA=35 %Loadloss=0.7639 %Noloadloss=0 NormHKVA=25 Phases=1 XHL=2.1 %imag=0 Wdg=1 Bus=B11418.2 kV=7.2 kVA=25 Wdg=2 Bus=X_B11418_B.2 kV=0.24 kVA=25
New Transformer.B14650_1C EmergHKVA=35 %Loadloss=0.7639 %Noloadloss=0 NormHKVA=25 Phases=1 XHL=2.1 %imag=0 Wdg=1 Bus=B14650.3 kV=7.2 kVA=25 Wdg=2 Bus=X_B14650_C.3 kV=0.24 kVA=25
New Transformer.B15823_1C EmergHKVA=21 %Loadloss=1.04 %Noloadloss=0 NormHKVA=15 Phases=1 XHL=1.5 %imag=0 Wdg=1 Bus=B15823.3 kV=7.2 kVA=15 Wdg=2 Bus=X_B15823_C.3 kV=0.24 kVA=15
New Transformer.B17988_1C EmergHKVA=35 %Loadloss=0.7639 %Noloadloss=0 NormHKVA=25 Phases=1 XHL=2.1 %imag=0 Wdg=1 Bus=B17988.3 kV=7.2 kVA=25 Wdg=2 Bus=X_B17988_C.3 kV=0.24 kVA=25
New Transformer.B11021_1C EmergHKVA=56 %Loadloss=0.7221 %Noloadloss=0 NormHKVA=40 Phases=1 XHL=1.5158 %imag=0 Wdg=1 Bus=B11021.3 kV=7.2 kVA=40 Wdg=2 Bus=X_B11021_C.3 kV=0.24 kVA=40
New Transformer.B61249_1C EmergHKVA=35 %Loadloss=0.7639 %Noloadloss=0 NormHKVA=25 Phases=1 XHL=2.1 %imag=0 Wdg=1 Bus=B61249.3 kV=7.2 kVA=25 Wdg=2 Bus=X_B61249_C.3 kV=0.24 kVA=25
New Transformer.B13652_1C EmergHKVA=35 %Loadloss=0.7639 %Noloadloss=0 NormHKVA=25 Phases=1 XHL=2.1 %imag=0 Wdg=1 Bus=B13652.3 kV=7.2 kVA=25 Wdg=2 Bus=X_B13652_C.3 kV=0.24 kVA=25
New Transformer.6039329105_1C EmergHKVA=35 %Loadloss=0.7639 %Noloadloss=0 NormHKVA=25 Phases=1 XHL=2.1 %imag=0 Wdg=1 Bus=6039329105.3 kV=7.2 kVA=25 Wdg=2 Bus=X_6039329105_C.3 kV=0.24 kVA=25
New Transformer.B46252_1C EmergHKVA=21 %Loadloss=1.04 %Noloadloss=0 NormHKVA=15 Phases=1 XHL=1.5 %imag=0 Wdg=1 Bus=B46252.3 kV=7.2 kVA=15 Wdg=2 Bus=X_B46252_C.3 kV=0.24 kVA=15
New Transformer.B19040_1C EmergHKVA=35 %Loadloss=0.7639 %Noloadloss=0 NormHKVA=25 Phases=1 XHL=2.1 %imag=0 Wdg=1 Bus=B19040.3 kV=7.2 kVA=25 Wdg=2 Bus=X_B19040_C.3 kV=0.24 kVA=25
New Transformer.B56693_1A EmergHKVA=21 %Loadloss=1.04 %Noloadloss=0 NormHKVA=15 Phases=1 XHL=1.5 %imag=0 Wdg=1 Bus=B56693.1 kV=7.2 kVA=15 Wdg=2 Bus=X_B56693_A.1 kV=0.24 kVA=15
New Transformer.B4870_1B EmergHKVA=35 %Loadloss=0.7639 %Noloadloss=0 NormHKVA=25 Phases=1 XHL=2.1 %imag=0 Wdg=1 Bus=B4870.2 kV=7.2 kVA=25 Wdg=2 Bus=X_B4870_B.2 kV=0.24 kVA=25
New Transformer.B4591_1A EmergHKVA=25.2 %Loadloss=1.04 %Noloadloss=0 NormHKVA=18.33 Phases=1 XHL=1.5 %imag=0 Wdg=1 Bus=B4591.1 kV=7.2 kVA=18 Wdg=2 Bus=X_B4591_A.1 kV=0.24 kVA=18
New Transformer.B4591_1C EmergHKVA=25.2 %Loadloss=1.04 %Noloadloss=0 NormHKVA=18.33 Phases=1 XHL=1.5 %imag=0 Wdg=1 Bus=B4591.3 kV=7.2 kVA=18 Wdg=2 Bus=X_B4591_C.3 kV=0.24 kVA=18
New Transformer.B59816_1A EmergHKVA=35 %Loadloss=0.7639 %Noloadloss=0 NormHKVA=25 Phases=1 XHL=2.1 %imag=0 Wdg=1 Bus=B59816.1 kV=7.2 kVA=25 Wdg=2 Bus=X_B59816_A.1 kV=0.24 kVA=25
New Transformer.B51853_1A EmergHKVA=21 %Loadloss=1.04 %Noloadloss=0 NormHKVA=15 Phases=1 XHL=1.5 %imag=0 Wdg=1 Bus=B51853.1 kV=7.2 kVA=15 Wdg=2 Bus=X_B51853_A.1 kV=0.24 kVA=15
New Transformer.G35564_1B EmergHKVA=35 %Loadloss=0.7639 %Noloadloss=0 NormHKVA=25 Phases=1 XHL=2.1 %imag=0 Wdg=1 Bus=G35564.2 kV=7.2 kVA=25 Wdg=2 Bus=X_G35564_B.2 kV=0.24 kVA=25
New Transformer.B29178_1A EmergHKVA=21 %Loadloss=1.04 %Noloadloss=0 NormHKVA=15 Phases=1 XHL=1.5 %imag=0 Wdg=1 Bus=B29178.1 kV=7.2 kVA=15 Wdg=2 Bus=X_B29178_A.1 kV=0.24 kVA=15
New Transformer.B43430_1B EmergHKVA=35 %Loadloss=0.7639 %Noloadloss=0 NormHKVA=25 Phases=1 XHL=2.1 %imag=0 Wdg=1 Bus=B43430.2 kV=7.2 kVA=25 Wdg=2 Bus=X_B43430_B.2 kV=0.24 kVA=25
New Transformer.B18987_1C EmergHKVA=35 %Loadloss=0.7639 %Noloadloss=0 NormHKVA=25 Phases=1 XHL=2.1 %imag=0 Wdg=1 Bus=B18987.3 kV=7.2 kVA=25 Wdg=2 Bus=X_B18987_C.3 kV=0.24 kVA=25
New Transformer.G43190_1A EmergHKVA=35 %Loadloss=0.7639 %Noloadloss=0 NormHKVA=25 Phases=1 XHL=2.1 %imag=0 Wdg=1 Bus=G43190.1 kV=7.2 kVA=25 Wdg=2 Bus=X_G43190_A.1 kV=0.24 kVA=25
New Transformer.B13095_1B EmergHKVA=35 %Loadloss=0.7639 %Noloadloss=0 NormHKVA=25 Phases=1 XHL=2.1 %imag=0 Wdg=1 Bus=B13095.2 kV=7.2 kVA=25 Wdg=2 Bus=X_B13095_B.2 kV=0.24 kVA=25
New Transformer.B4817_1C EmergHKVA=35 %Loadloss=0.7639 %Noloadloss=0 NormHKVA=25 Phases=1 XHL=2.1 %imag=0 Wdg=1 Bus=B4817.3 kV=7.2 kVA=25 Wdg=2 Bus=X_B4817_C.3 kV=0.24 kVA=25
New Transformer.B47687_1C EmergHKVA=21 %Loadloss=1.04 %Noloadloss=0 NormHKVA=15 Phases=1 XHL=1.5 %imag=0 Wdg=1 Bus=B47687.3 kV=7.2 kVA=15 Wdg=2 Bus=X_B47687_C.3 kV=0.24 kVA=15
New Transformer.B55976_1A EmergHKVA=21 %Loadloss=1.04 %Noloadloss=0 NormHKVA=15 Phases=1 XHL=1.5 %imag=0 Wdg=1 Bus=B55976.1 kV=7.2 kVA=15 Wdg=2 Bus=X_B55976_A.1 kV=0.24 kVA=15
New Transformer.B18910_1A EmergHKVA=35 %Loadloss=0.7639 %Noloadloss=0 NormHKVA=25 Phases=1 XHL=2.1 %imag=0 Wdg=1 Bus=B18910.1 kV=7.2 kVA=25 Wdg=2 Bus=X_B18910_A.1 kV=0.24 kVA=25
New Transformer.B19179_1A EmergHKVA=35 %Loadloss=0.7639 %Noloadloss=0 NormHKVA=25 Phases=1 XHL=2.1 %imag=0 Wdg=1 Bus=B19179.1 kV=7.2 kVA=25 Wdg=2 Bus=X_B19179_A.1 kV=0.24 kVA=25
New Transformer.B23591_1C EmergHKVA=35 %Loadloss=0.7639 %Noloadloss=0 NormHKVA=25 Phases=1 XHL=2.1 %imag=0 Wdg=1 Bus=B23591.3 kV=7.2 kVA=25 Wdg=2 Bus=X_B23591_C.3 kV=0.24 kVA=25
New Transformer.B55823_1C EmergHKVA=14 %Loadloss=1.022 %Noloadloss=0 NormHKVA=10 Phases=1 XHL=1.707 %imag=0 Wdg=1 Bus=B55823.3 kV=7.2 kVA=10 Wdg=2 Bus=X_B55823_C.3 kV=0.24 kVA=10
New Transformer.B62292_1B EmergHKVA=35 %Loadloss=0.7639 %Noloadloss=0 NormHKVA=25 Phases=1 XHL=2.1 %imag=0 Wdg=1 Bus=B62292.2 kV=7.2 kVA=25 Wdg=2 Bus=X_B62292_B.2 kV=0.24 kVA=25
New Transformer.B4819_1C EmergHKVA=35 %Loadloss=0.7639 %Noloadloss=0 NormHKVA=25 Phases=1 XHL=2.1 %imag=0 Wdg=1 Bus=B4819.3 kV=7.2 kVA=25 Wdg=2 Bus=X_B4819_C.3 kV=0.24 kVA=25
New Transformer.B32823_1C EmergHKVA=21 %Loadloss=1.04 %Noloadloss=0 NormHKVA=15 Phases=1 XHL=1.5 %imag=0 Wdg=1 Bus=B32823.3 kV=7.2 kVA=15 Wdg=2 Bus=X_B32823_C.3 kV=0.24 kVA=15
New Transformer.B60872_1C EmergHKVA=21 %Loadloss=1.04 %Noloadloss=0 NormHKVA=15 Phases=1 XHL=1.5 %imag=0 Wdg=1 Bus=B60872.3 kV=7.2 kVA=15 Wdg=2 Bus=X_B60872_C.3 kV=0.24 kVA=15
New Transformer.B10227_1A EmergHKVA=43.4 %Loadloss=0.7639 %Noloadloss=0 NormHKVA=31.25 Phases=1 XHL=2.1 %imag=0 Wdg=1 Bus=B10227.1 kV=7.2 kVA=31 Wdg=2 Bus=X_B10227_A.1 kV=0.24 kVA=31
New Transformer.B10227_1C EmergHKVA=43.4 %Loadloss=0.7639 %Noloadloss=0 NormHKVA=31.25 Phases=1 XHL=2.1 %imag=0 Wdg=1 Bus=B10227.3 kV=7.2 kVA=31 Wdg=2 Bus=X_B10227_C.3 kV=0.24 kVA=31
New Transformer.5985329641_1B EmergHKVA=21 %Loadloss=1.04 %Noloadloss=0 NormHKVA=15 Phases=1 XHL=1.5 %imag=0 Wdg=1 Bus=5985329641.2 kV=7.2 kVA=15 Wdg=2 Bus=X_5985329641_B.2 kV=0.24 kVA=15
New Transformer.B4881_1C EmergHKVA=21 %Loadloss=1.04 %Noloadloss=0 NormHKVA=15 Phases=1 XHL=1.5 %imag=0 Wdg=1 Bus=B4881.3 kV=7.2 kVA=15 Wdg=2 Bus=X_B4881_C.3 kV=0.24 kVA=15
New Transformer.B66604_1C EmergHKVA=21 %Loadloss=1.04 %Noloadloss=0 NormHKVA=15 Phases=1 XHL=1.5 %imag=0 Wdg=1 Bus=B66604.3 kV=7.2 kVA=15 Wdg=2 Bus=X_B66604_C.3 kV=0.24 kVA=15
New Transformer.6005928693_1C EmergHKVA=53.2 %Loadloss=0.7221 %Noloadloss=0 NormHKVA=37.5 Phases=1 XHL=1.5158 %imag=0 Wdg=1 Bus=6005928693.3 kV=7.2 kVA=38 Wdg=2 Bus=X_6005928693_C.3 kV=0.24 kVA=38
New Transformer.B24282_1C EmergHKVA=21 %Loadloss=1.04 %Noloadloss=0 NormHKVA=15 Phases=1 XHL=1.5 %imag=0 Wdg=1 Bus=B24282.3 kV=7.2 kVA=15 Wdg=2 Bus=X_B24282_C.3 kV=0.24 kVA=15
New Transformer.B4709_1A EmergHKVA=86.8 %Loadloss=0.738 %Noloadloss=0 NormHKVA=62.5 Phases=1 XHL=1.7532 %imag=0 Wdg=1 Bus=B4709.1 kV=7.2 kVA=62 Wdg=2 Bus=X_B4709_A.1 kV=0.24 kVA=62
New Transformer.B45816_1B EmergHKVA=14 %Loadloss=1.022 %Noloadloss=0 NormHKVA=10 Phases=1 XHL=1.707 %imag=0 Wdg=1 Bus=B45816.2 kV=7.2 kVA=10 Wdg=2 Bus=X_B45816_B.2 kV=0.24 kVA=10
New Transformer.B41086_1B EmergHKVA=14 %Loadloss=1.022 %Noloadloss=0 NormHKVA=10 Phases=1 XHL=1.707 %imag=0 Wdg=1 Bus=B41086.2 kV=7.2 kVA=10 Wdg=2 Bus=X_B41086_B.2 kV=0.24 kVA=10
New Transformer.B41086_1C EmergHKVA=14 %Loadloss=1.022 %Noloadloss=0 NormHKVA=10 Phases=1 XHL=1.707 %imag=0 Wdg=1 Bus=B41086.3 kV=7.2 kVA=10 Wdg=2 Bus=X_B41086_C.3 kV=0.24 kVA=10
New Transformer.B18856_1B EmergHKVA=21 %Loadloss=1.04 %Noloadloss=0 NormHKVA=15 Phases=1 XHL=1.5 %imag=0 Wdg=1 Bus=B18856.2 kV=7.2 kVA=15 Wdg=2 Bus=X_B18856_B.2 kV=0.24 kVA=15
New Transformer.B4676_1A EmergHKVA=53.2 %Loadloss=0.7221 %Noloadloss=0 NormHKVA=37.5 Phases=1 XHL=1.5158 %imag=0 Wdg=1 Bus=B4676.1 kV=7.2 kVA=38 Wdg=2 Bus=X_B4676_A.1 kV=0.24 kVA=38
...


! Let DSS estimate the voltage bases
Set voltagebases=[69 12.47 7.2 0.48 0.416]
Calcvoltagebases     ! This also establishes the bus list

Buscoords J1test_buscoords.csv


set maxiterations=1000
